LTspice 26.0.1 for Windows
Circuit: D:\MICRO PROJECT\mux.net
Start Time: Fri May  8 10:40:40 2026
solver = Normal
Maximum thread count: 8
tnom = 27
temp = 27
method = trap
Model "pmos0p18": Oxide thickness thinner than recommended for a level 1 MOSFET.
Instance "x1:M2": Length shorter than recommended for a level 1 MOSFET.
Instance "x1:M2": Width narrower than recommended for a level 1 MOSFET.
Instance "x1:M1": Length shorter than recommended for a level 1 MOSFET.
Instance "x1:M1": Width narrower than recommended for a level 1 MOSFET.
Instance "x2:M2": Length shorter than recommended for a level 1 MOSFET.
Instance "x2:M2": Width narrower than recommended for a level 1 MOSFET.
Instance "x2:M1": Length shorter than recommended for a level 1 MOSFET.
Instance "x2:M1": Width narrower than recommended for a level 1 MOSFET.
Instance "x3:M2": Length shorter than recommended for a level 1 MOSFET.
Instance "x3:M2": Width narrower than recommended for a level 1 MOSFET.
Instance "x3:M1": Length shorter than recommended for a level 1 MOSFET.
Instance "x3:M1": Width narrower than recommended for a level 1 MOSFET.
Instance "x4:M2": Length shorter than recommended for a level 1 MOSFET.
Instance "x4:M2": Width narrower than recommended for a level 1 MOSFET.
Instance "x4:M1": Length shorter than recommended for a level 1 MOSFET.
Instance "x4:M1": Width narrower than recommended for a level 1 MOSFET.
Instance "x5:M2": Length shorter than recommended for a level 1 MOSFET.
Instance "x5:M2": Width narrower than recommended for a level 1 MOSFET.
Instance "x5:M1": Length shorter than recommended for a level 1 MOSFET.
Instance "x5:M1": Width narrower than recommended for a level 1 MOSFET.
Instance "x6:M2": Length shorter than recommended for a level 1 MOSFET.
Instance "x6:M2": Width narrower than recommended for a level 1 MOSFET.
Instance "x6:M1": Length shorter than recommended for a level 1 MOSFET.
Instance "x6:M1": Width narrower than recommended for a level 1 MOSFET.
Instance "x7:M2": Length shorter than recommended for a level 1 MOSFET.
Instance "x7:M2": Width narrower than recommended for a level 1 MOSFET.
Instance "x7:M1": Length shorter than recommended for a level 1 MOSFET.
Instance "x7:M1": Width narrower than recommended for a level 1 MOSFET.
Instance "x8:M2": Length shorter than recommended for a level 1 MOSFET.
Instance "x8:M2": Width narrower than recommended for a level 1 MOSFET.
Instance "x8:M1": Length shorter than recommended for a level 1 MOSFET.
Instance "x8:M1": Width narrower than recommended for a level 1 MOSFET.
Instance "x9:M2": Length shorter than recommended for a level 1 MOSFET.
Instance "x9:M2": Width narrower than recommended for a level 1 MOSFET.
Instance "x9:M1": Length shorter than recommended for a level 1 MOSFET.
Instance "x9:M1": Width narrower than recommended for a level 1 MOSFET.
Instance "x10:M2": Length shorter than recommended for a level 1 MOSFET.
Instance "x10:M2": Width narrower than recommended for a level 1 MOSFET.
Instance "x11:M2": Length shorter than recommended for a level 1 MOSFET.
Instance "x11:M2": Width narrower than recommended for a level 1 MOSFET.
Model "nmos0p18": Oxide thickness thinner than recommended for a level 1 MOSFET.
Instance "x1:M3": Length shorter than recommended for a level 1 MOSFET.
Instance "x1:M3": Width narrower than recommended for a level 1 MOSFET.
Instance "x1:M4": Length shorter than recommended for a level 1 MOSFET.
Instance "x1:M4": Width narrower than recommended for a level 1 MOSFET.
Instance "x2:M3": Length shorter than recommended for a level 1 MOSFET.
Instance "x2:M3": Width narrower than recommended for a level 1 MOSFET.
Instance "x2:M4": Length shorter than recommended for a level 1 MOSFET.
Instance "x2:M4": Width narrower than recommended for a level 1 MOSFET.
Instance "x3:M3": Length shorter than recommended for a level 1 MOSFET.
Instance "x3:M3": Width narrower than recommended for a level 1 MOSFET.
Instance "x3:M4": Length shorter than recommended for a level 1 MOSFET.
Instance "x3:M4": Width narrower than recommended for a level 1 MOSFET.
Instance "x4:M3": Length shorter than recommended for a level 1 MOSFET.
Instance "x4:M3": Width narrower than recommended for a level 1 MOSFET.
Instance "x4:M4": Length shorter than recommended for a level 1 MOSFET.
Instance "x4:M4": Width narrower than recommended for a level 1 MOSFET.
Instance "x5:M3": Length shorter than recommended for a level 1 MOSFET.
Instance "x5:M3": Width narrower than recommended for a level 1 MOSFET.
Instance "x5:M4": Length shorter than recommended for a level 1 MOSFET.
Instance "x5:M4": Width narrower than recommended for a level 1 MOSFET.
Instance "x6:M3": Length shorter than recommended for a level 1 MOSFET.
Instance "x6:M3": Width narrower than recommended for a level 1 MOSFET.
Instance "x6:M4": Length shorter than recommended for a level 1 MOSFET.
Instance "x6:M4": Width narrower than recommended for a level 1 MOSFET.
Instance "x7:M3": Length shorter than recommended for a level 1 MOSFET.
Instance "x7:M3": Width narrower than recommended for a level 1 MOSFET.
Instance "x7:M4": Length shorter than recommended for a level 1 MOSFET.
Instance "x7:M4": Width narrower than recommended for a level 1 MOSFET.
Instance "x8:M3": Length shorter than recommended for a level 1 MOSFET.
Instance "x8:M3": Width narrower than recommended for a level 1 MOSFET.
Instance "x8:M4": Length shorter than recommended for a level 1 MOSFET.
Instance "x8:M4": Width narrower than recommended for a level 1 MOSFET.
Instance "x9:M3": Length shorter than recommended for a level 1 MOSFET.
Instance "x9:M3": Width narrower than recommended for a level 1 MOSFET.
Instance "x9:M4": Length shorter than recommended for a level 1 MOSFET.
Instance "x9:M4": Width narrower than recommended for a level 1 MOSFET.
Instance "x10:M1": Length shorter than recommended for a level 1 MOSFET.
Instance "x10:M1": Width narrower than recommended for a level 1 MOSFET.
Instance "x11:M1": Length shorter than recommended for a level 1 MOSFET.
Instance "x11:M1": Width narrower than recommended for a level 1 MOSFET.
Direct Newton iteration succeeded in finding operating point.
Total elapsed time: 1.025 seconds.

Files loaded:
D:\MICRO PROJECT\mux.net
C:\Users\Mahmoud Hossam\AppData\Local\LTspice\lib\cmp\standard.mos
D:\MICRO PROJECT\MOSFET_models_0p5_0p18-4.inc

