LTspice 26.0.1 for Windows
Circuit: D:\Microelectronics-Project\mux.net
Start Time: Fri May  8 11:30:02 2026
solver = Normal
Maximum thread count: 8
tnom = 27
temp = 27
method = trap
Model "pmos0p18": Oxide thickness thinner than recommended for a level 1 MOSFET.
Instance "x1:M2": Length shorter than recommended for a level 1 MOSFET.
Instance "x1:M2": Width narrower than recommended for a level 1 MOSFET.
Instance "x1:M1": Length shorter than recommended for a level 1 MOSFET.
Instance "x1:M1": Width narrower than recommended for a level 1 MOSFET.
Instance "x2:M2": Length shorter than recommended for a level 1 MOSFET.
Instance "x2:M2": Width narrower than recommended for a level 1 MOSFET.
Instance "x2:M1": Length shorter than recommended for a level 1 MOSFET.
Instance "x2:M1": Width narrower than recommended for a level 1 MOSFET.
Instance "x3:M2": Length shorter than recommended for a level 1 MOSFET.
Instance "x3:M2": Width narrower than recommended for a level 1 MOSFET.
Instance "x3:M1": Length shorter than recommended for a level 1 MOSFET.
Instance "x3:M1": Width narrower than recommended for a level 1 MOSFET.
Instance "x4:M2": Length shorter than recommended for a level 1 MOSFET.
Instance "x4:M2": Width narrower than recommended for a level 1 MOSFET.
Instance "x4:M1": Length shorter than recommended for a level 1 MOSFET.
Instance "x4:M1": Width narrower than recommended for a level 1 MOSFET.
Instance "x5:M2": Length shorter than recommended for a level 1 MOSFET.
Instance "x5:M2": Width narrower than recommended for a level 1 MOSFET.
Instance "x5:M1": Length shorter than recommended for a level 1 MOSFET.
Instance "x5:M1": Width narrower than recommended for a level 1 MOSFET.
Instance "x6:M2": Length shorter than recommended for a level 1 MOSFET.
Instance "x6:M2": Width narrower than recommended for a level 1 MOSFET.
Instance "x6:M1": Length shorter than recommended for a level 1 MOSFET.
Instance "x6:M1": Width narrower than recommended for a level 1 MOSFET.
Instance "x7:M2": Length shorter than recommended for a level 1 MOSFET.
Instance "x7:M2": Width narrower than recommended for a level 1 MOSFET.
Instance "x7:M1": Length shorter than recommended for a level 1 MOSFET.
Instance "x7:M1": Width narrower than recommended for a level 1 MOSFET.
Instance "x8:M2": Length shorter than recommended for a level 1 MOSFET.
Instance "x8:M2": Width narrower than recommended for a level 1 MOSFET.
Instance "x8:M1": Length shorter than recommended for a level 1 MOSFET.
Instance "x8:M1": Width narrower than recommended for a level 1 MOSFET.
Instance "x9:M2": Length shorter than recommended for a level 1 MOSFET.
Instance "x9:M2": Width narrower than recommended for a level 1 MOSFET.
Instance "x9:M1": Length shorter than recommended for a level 1 MOSFET.
Instance "x9:M1": Width narrower than recommended for a level 1 MOSFET.
Instance "x10:M2": Length shorter than recommended for a level 1 MOSFET.
Instance "x10:M2": Width narrower than recommended for a level 1 MOSFET.
Instance "x11:M2": Length shorter than recommended for a level 1 MOSFET.
Instance "x11:M2": Width narrower than recommended for a level 1 MOSFET.
Model "nmos0p18": Oxide thickness thinner than recommended for a level 1 MOSFET.
Instance "x1:M3": Length shorter than recommended for a level 1 MOSFET.
Instance "x1:M3": Width narrower than recommended for a level 1 MOSFET.
Instance "x1:M4": Length shorter than recommended for a level 1 MOSFET.
Instance "x1:M4": Width narrower than recommended for a level 1 MOSFET.
Instance "x2:M3": Length shorter than recommended for a level 1 MOSFET.
Instance "x2:M3": Width narrower than recommended for a level 1 MOSFET.
Instance "x2:M4": Length shorter than recommended for a level 1 MOSFET.
Instance "x2:M4": Width narrower than recommended for a level 1 MOSFET.
Instance "x3:M3": Length shorter than recommended for a level 1 MOSFET.
Instance "x3:M3": Width narrower than recommended for a level 1 MOSFET.
Instance "x3:M4": Length shorter than recommended for a level 1 MOSFET.
Instance "x3:M4": Width narrower than recommended for a level 1 MOSFET.
Instance "x4:M3": Length shorter than recommended for a level 1 MOSFET.
Instance "x4:M3": Width narrower than recommended for a level 1 MOSFET.
Instance "x4:M4": Length shorter than recommended for a level 1 MOSFET.
Instance "x4:M4": Width narrower than recommended for a level 1 MOSFET.
Instance "x5:M3": Length shorter than recommended for a level 1 MOSFET.
Instance "x5:M3": Width narrower than recommended for a level 1 MOSFET.
Instance "x5:M4": Length shorter than recommended for a level 1 MOSFET.
Instance "x5:M4": Width narrower than recommended for a level 1 MOSFET.
Instance "x6:M3": Length shorter than recommended for a level 1 MOSFET.
Instance "x6:M3": Width narrower than recommended for a level 1 MOSFET.
Instance "x6:M4": Length shorter than recommended for a level 1 MOSFET.
Instance "x6:M4": Width narrower than recommended for a level 1 MOSFET.
Instance "x7:M3": Length shorter than recommended for a level 1 MOSFET.
Instance "x7:M3": Width narrower than recommended for a level 1 MOSFET.
Instance "x7:M4": Length shorter than recommended for a level 1 MOSFET.
Instance "x7:M4": Width narrower than recommended for a level 1 MOSFET.
Instance "x8:M3": Length shorter than recommended for a level 1 MOSFET.
Instance "x8:M3": Width narrower than recommended for a level 1 MOSFET.
Instance "x8:M4": Length shorter than recommended for a level 1 MOSFET.
Instance "x8:M4": Width narrower than recommended for a level 1 MOSFET.
Instance "x9:M3": Length shorter than recommended for a level 1 MOSFET.
Instance "x9:M3": Width narrower than recommended for a level 1 MOSFET.
Instance "x9:M4": Length shorter than recommended for a level 1 MOSFET.
Instance "x9:M4": Width narrower than recommended for a level 1 MOSFET.
Instance "x10:M1": Length shorter than recommended for a level 1 MOSFET.
Instance "x10:M1": Width narrower than recommended for a level 1 MOSFET.
Instance "x11:M1": Length shorter than recommended for a level 1 MOSFET.
Instance "x11:M1": Width narrower than recommended for a level 1 MOSFET.
Direct Newton iteration succeeded in finding operating point.
Total elapsed time: 1.116 seconds.

Files loaded:
D:\Microelectronics-Project\mux.net
C:\Users\Mahmoud Hossam\AppData\Local\LTspice\lib\cmp\standard.mos
D:\Microelectronics-Project\MOSFET_models_0p5_0p18-4.inc

tplh_d0=3.73640754431e-11 FROM 1.00050000001e-08 TO 1.00423640756e-08
tphl_d0=3.85994548574e-11 FROM 1.50149999999e-08 TO 1.50535994547e-08
avg_power: AVG((-I(vdd)*1.8) )=1.0044619632e-05 FROM 0 TO 3.2e-07
