LTspice 26.0.1 for Windows
Circuit: D:\MICRO PROJECT\partA1a.net
Start Time: Wed May  6 13:49:45 2026
solver = Normal
Maximum thread count: 8
tnom = 27
temp = 27
method = trap
WARNING: Node nc_01 is floating.
WARNING: Node nc_02 is floating.

Model "pmos0p18": Oxide thickness thinner than recommended for a level 1 MOSFET.
Instance "M2": Length shorter than recommended for a level 1 MOSFET.
Instance "M2": Width narrower than recommended for a level 1 MOSFET.
Model "nmos0p18": Oxide thickness thinner than recommended for a level 1 MOSFET.
Instance "M1": Length shorter than recommended for a level 1 MOSFET.
Instance "M1": Width narrower than recommended for a level 1 MOSFET.
Total elapsed time: 0.158 seconds.

Files loaded:
D:\MICRO PROJECT\partA1a.net
C:\Users\Mahmoud Hossam\AppData\Local\LTspice\lib\cmp\standard.mos
D:\MICRO PROJECT\MOSFET_models_0p5_0p18-4.inc

