LTspice 26.0.1 for Windows
Circuit: D:\MICRO PROJECT\partA3 pulse matched.net
Start Time: Wed May  6 15:03:54 2026
solver = Normal
Maximum thread count: 8
tnom = 27
temp = 27
method = trap
Model "pmos0p5": Oxide thickness thinner than recommended for a level 1 MOSFET.
Instance "M2": Length shorter than recommended for a level 1 MOSFET.
Instance "M2": Width narrower than recommended for a level 1 MOSFET.
Model "nmos0p5": Oxide thickness thinner than recommended for a level 1 MOSFET.
Instance "M1": Length shorter than recommended for a level 1 MOSFET.
Instance "M1": Width narrower than recommended for a level 1 MOSFET.
D:\MICRO PROJECT\partA3 pulse matched.net(6): Missing value, assuming 0V @ DC.

V2 vin 0
^^^^^^^^
Total elapsed time: 0.146 seconds.

Files loaded:
D:\MICRO PROJECT\partA3 pulse matched.net
C:\Users\Mahmoud Hossam\AppData\Local\LTspice\lib\cmp\standard.mos
D:\MICRO PROJECT\MOSFET_models_0p5_0p18-4.inc

