LTspice 26.0.1 for Windows
Circuit: D:\MICRO PROJECT\partA1b.net
Start Time: Wed May  6 14:06:12 2026
solver = Normal
Maximum thread count: 8
tnom = 27
temp = 27
method = trap
WARNING: Node nc_01 is floating.
WARNING: Node nc_02 is floating.

Model "pmos0p18": Oxide thickness thinner than recommended for a level 1 MOSFET.
Instance "M2": Length shorter than recommended for a level 1 MOSFET.
Instance "M2": Width narrower than recommended for a level 1 MOSFET.
Model "nmos0p18": Oxide thickness thinner than recommended for a level 1 MOSFET.
Instance "M1": Length shorter than recommended for a level 1 MOSFET.
Instance "M1": Width narrower than recommended for a level 1 MOSFET.
Direct Newton iteration succeeded in finding operating point.
Total elapsed time: 0.179 seconds.

Files loaded:
D:\MICRO PROJECT\partA1b.net
C:\Users\Mahmoud Hossam\AppData\Local\LTspice\lib\cmp\standard.mos
D:\MICRO PROJECT\MOSFET_models_0p5_0p18-4.inc

tphl=1.98118750354e-10 FROM 5.00000013425e-12 TO 2.03118750488e-10
tplh=4.24055308497e-10 FROM 5.01499999979e-09 TO 5.43905530829e-09
