LTspice 26.0.1 for Windows
Circuit: D:\MICRO PROJECT\partA1Cunmatched.net
Start Time: Wed May  6 14:17:43 2026
solver = Normal
Maximum thread count: 8
tnom = 27
temp = 27
method = trap
Model "pmos0p18": Oxide thickness thinner than recommended for a level 1 MOSFET.
Instance "M2": Length shorter than recommended for a level 1 MOSFET.
Instance "M2": Width narrower than recommended for a level 1 MOSFET.
Model "nmos0p18": Oxide thickness thinner than recommended for a level 1 MOSFET.
Instance "M1": Length shorter than recommended for a level 1 MOSFET.
Instance "M1": Width narrower than recommended for a level 1 MOSFET.
Direct Newton iteration succeeded in finding operating point.
Total elapsed time: 0.175 seconds.

Files loaded:
D:\MICRO PROJECT\partA1Cunmatched.net
C:\Users\Mahmoud Hossam\AppData\Local\LTspice\lib\cmp\standard.mos
D:\MICRO PROJECT\MOSFET_models_0p5_0p18-4.inc

tphl=1.97187616672e-10 FROM 5.00000010261e-12 TO 2.02187616775e-10
tplh=1.97833652288e-10 FROM 5.01499999999e-09 TO 5.21283365228e-09
