LTspice 26.0.1 for Windows
Circuit: D:\MICRO PROJECT\partA2matched.net
Start Time: Wed May  6 14:52:26 2026
solver = Normal
Maximum thread count: 8
tnom = 27
temp = 27
method = trap
Model "pmos0p5": Oxide thickness thinner than recommended for a level 1 MOSFET.
Instance "M2": Length shorter than recommended for a level 1 MOSFET.
Instance "M2": Width narrower than recommended for a level 1 MOSFET.
Model "nmos0p5": Oxide thickness thinner than recommended for a level 1 MOSFET.
Instance "M1": Length shorter than recommended for a level 1 MOSFET.
Instance "M1": Width narrower than recommended for a level 1 MOSFET.
Direct Newton iteration succeeded in finding operating point.
Total elapsed time: 0.184 seconds.

Files loaded:
D:\MICRO PROJECT\partA2matched.net
C:\Users\Mahmoud Hossam\AppData\Local\LTspice\lib\cmp\standard.mos
D:\MICRO PROJECT\MOSFET_models_0p5_0p18-4.inc

tphl=6.24975632112e-10 FROM 5.00000014945e-12 TO 6.29975632262e-10
tplh=1.26818913325e-09 FROM 5.01500000014e-09 TO 6.28318913339e-09
