LTspice 26.0.1 for Windows
Circuit: D:\Microelectronics-Project\netlists\A1bunmatched.net
Start Time: Fri May  8 12:40:50 2026
solver = Normal
Maximum thread count: 8
tnom = 27
temp = 27
method = trap
Model "pmos0p18": Oxide thickness thinner than recommended for a level 1 MOSFET.
Instance "M2": Length shorter than recommended for a level 1 MOSFET.
Instance "M2": Width narrower than recommended for a level 1 MOSFET.
Model "nmos0p18": Oxide thickness thinner than recommended for a level 1 MOSFET.
Instance "M1": Length shorter than recommended for a level 1 MOSFET.
Instance "M1": Width narrower than recommended for a level 1 MOSFET.
Total elapsed time: 0.094 seconds.

Files loaded:
D:\Microelectronics-Project\netlists\A1bunmatched.net
D:\Microelectronics-Project\netlists\MOSFET_models_0p5_0p18-4.inc

