LTspice 26.0.1 for Windows
Circuit: D:\Microelectronics-Project\netlists\A2matched.net
Start Time: Fri May  8 12:53:40 2026
solver = Normal
Maximum thread count: 8
tnom = 27
temp = 27
method = trap
Model "pmos0p18": Oxide thickness thinner than recommended for a level 1 MOSFET.
Instance "M2": Length shorter than recommended for a level 1 MOSFET.
Instance "M2": Width narrower than recommended for a level 1 MOSFET.
Model "nmos0p18": Oxide thickness thinner than recommended for a level 1 MOSFET.
Instance "M1": Length shorter than recommended for a level 1 MOSFET.
Instance "M1": Width narrower than recommended for a level 1 MOSFET.
Direct Newton iteration succeeded in finding operating point.
Total elapsed time: 0.171 seconds.

Files loaded:
D:\Microelectronics-Project\netlists\A2matched.net
D:\Microelectronics-Project\netlists\MOSFET_models_0p5_0p18-4.inc

tphl=1.97117497889e-10 FROM 4.99999995832e-12 TO 2.02117497848e-10
tplh=1.9795931508e-10 FROM 5.01499999995e-09 TO 5.21295931503e-09
