LTspice 26.0.1 for Windows
Circuit: D:\Microelectronics-Project\netlists\A3delaymatched.net
Start Time: Fri May  8 13:06:13 2026
solver = Normal
Maximum thread count: 8
tnom = 27
temp = 27
method = trap
Model "pmos0p5": Oxide thickness thinner than recommended for a level 1 MOSFET.
Instance "M2": Length shorter than recommended for a level 1 MOSFET.
Instance "M2": Width narrower than recommended for a level 1 MOSFET.
Model "nmos0p5": Oxide thickness thinner than recommended for a level 1 MOSFET.
Instance "M1": Length shorter than recommended for a level 1 MOSFET.
Instance "M1": Width narrower than recommended for a level 1 MOSFET.
Direct Newton iteration succeeded in finding operating point.
Total elapsed time: 0.173 seconds.

Files loaded:
D:\Microelectronics-Project\netlists\A3delaymatched.net
D:\Microelectronics-Project\netlists\MOSFET_models_0p5_0p18-4.inc

tphl=6.28720205238e-10 FROM 5.00000013337e-12 TO 6.33720205372e-10
tplh=5.60888384772e-10 FROM 5.01499999987e-09 TO 5.57588838465e-09
