LTspice 26.0.1 for Windows
Circuit: D:\Microelectronics-Project\netlists\mux.net
Start Time: Wed May 13 13:49:37 2026
solver = Normal
Maximum thread count: 8
tnom = 27
temp = 27
method = trap
Model "pmos0p18": Oxide thickness thinner than recommended for a level 1 MOSFET.
Instance "x10:M2": Length shorter than recommended for a level 1 MOSFET.
Instance "x10:M2": Width narrower than recommended for a level 1 MOSFET.
Instance "x11:M2": Length shorter than recommended for a level 1 MOSFET.
Instance "x11:M2": Width narrower than recommended for a level 1 MOSFET.
Instance "x1:M1": Length shorter than recommended for a level 1 MOSFET.
Instance "x1:M1": Width narrower than recommended for a level 1 MOSFET.
Instance "x1:M2": Length shorter than recommended for a level 1 MOSFET.
Instance "x1:M2": Width narrower than recommended for a level 1 MOSFET.
Instance "x1:M3": Length shorter than recommended for a level 1 MOSFET.
Instance "x1:M3": Width narrower than recommended for a level 1 MOSFET.
Instance "x2:M1": Length shorter than recommended for a level 1 MOSFET.
Instance "x2:M1": Width narrower than recommended for a level 1 MOSFET.
Instance "x2:M2": Length shorter than recommended for a level 1 MOSFET.
Instance "x2:M2": Width narrower than recommended for a level 1 MOSFET.
Instance "x2:M3": Length shorter than recommended for a level 1 MOSFET.
Instance "x2:M3": Width narrower than recommended for a level 1 MOSFET.
Instance "x3:M1": Length shorter than recommended for a level 1 MOSFET.
Instance "x3:M1": Width narrower than recommended for a level 1 MOSFET.
Instance "x3:M2": Length shorter than recommended for a level 1 MOSFET.
Instance "x3:M2": Width narrower than recommended for a level 1 MOSFET.
Instance "x3:M3": Length shorter than recommended for a level 1 MOSFET.
Instance "x3:M3": Width narrower than recommended for a level 1 MOSFET.
Instance "x4:M1": Length shorter than recommended for a level 1 MOSFET.
Instance "x4:M1": Width narrower than recommended for a level 1 MOSFET.
Instance "x4:M2": Length shorter than recommended for a level 1 MOSFET.
Instance "x4:M2": Width narrower than recommended for a level 1 MOSFET.
Instance "x4:M3": Length shorter than recommended for a level 1 MOSFET.
Instance "x4:M3": Width narrower than recommended for a level 1 MOSFET.
Instance "x5:M1": Length shorter than recommended for a level 1 MOSFET.
Instance "x5:M1": Width narrower than recommended for a level 1 MOSFET.
Instance "x5:M2": Length shorter than recommended for a level 1 MOSFET.
Instance "x5:M2": Width narrower than recommended for a level 1 MOSFET.
Instance "x5:M3": Length shorter than recommended for a level 1 MOSFET.
Instance "x5:M3": Width narrower than recommended for a level 1 MOSFET.
Instance "x5:M4": Length shorter than recommended for a level 1 MOSFET.
Instance "x5:M4": Width narrower than recommended for a level 1 MOSFET.
Model "nmos0p18": Oxide thickness thinner than recommended for a level 1 MOSFET.
Instance "x10:M1": Length shorter than recommended for a level 1 MOSFET.
Instance "x10:M1": Width narrower than recommended for a level 1 MOSFET.
Instance "x11:M1": Length shorter than recommended for a level 1 MOSFET.
Instance "x11:M1": Width narrower than recommended for a level 1 MOSFET.
Instance "x1:M4": Length shorter than recommended for a level 1 MOSFET.
Instance "x1:M4": Width narrower than recommended for a level 1 MOSFET.
Instance "x1:M5": Length shorter than recommended for a level 1 MOSFET.
Instance "x1:M5": Width narrower than recommended for a level 1 MOSFET.
Instance "x1:M6": Length shorter than recommended for a level 1 MOSFET.
Instance "x1:M6": Width narrower than recommended for a level 1 MOSFET.
Instance "x2:M4": Length shorter than recommended for a level 1 MOSFET.
Instance "x2:M4": Width narrower than recommended for a level 1 MOSFET.
Instance "x2:M5": Length shorter than recommended for a level 1 MOSFET.
Instance "x2:M5": Width narrower than recommended for a level 1 MOSFET.
Instance "x2:M6": Length shorter than recommended for a level 1 MOSFET.
Instance "x2:M6": Width narrower than recommended for a level 1 MOSFET.
Instance "x3:M4": Length shorter than recommended for a level 1 MOSFET.
Instance "x3:M4": Width narrower than recommended for a level 1 MOSFET.
Instance "x3:M5": Length shorter than recommended for a level 1 MOSFET.
Instance "x3:M5": Width narrower than recommended for a level 1 MOSFET.
Instance "x3:M6": Length shorter than recommended for a level 1 MOSFET.
Instance "x3:M6": Width narrower than recommended for a level 1 MOSFET.
Instance "x4:M4": Length shorter than recommended for a level 1 MOSFET.
Instance "x4:M4": Width narrower than recommended for a level 1 MOSFET.
Instance "x4:M5": Length shorter than recommended for a level 1 MOSFET.
Instance "x4:M5": Width narrower than recommended for a level 1 MOSFET.
Instance "x4:M6": Length shorter than recommended for a level 1 MOSFET.
Instance "x4:M6": Width narrower than recommended for a level 1 MOSFET.
Instance "x5:M5": Length shorter than recommended for a level 1 MOSFET.
Instance "x5:M5": Width narrower than recommended for a level 1 MOSFET.
Instance "x5:M6": Length shorter than recommended for a level 1 MOSFET.
Instance "x5:M6": Width narrower than recommended for a level 1 MOSFET.
Instance "x5:M7": Length shorter than recommended for a level 1 MOSFET.
Instance "x5:M7": Width narrower than recommended for a level 1 MOSFET.
Instance "x5:M8": Length shorter than recommended for a level 1 MOSFET.
Instance "x5:M8": Width narrower than recommended for a level 1 MOSFET.
Direct Newton iteration succeeded in finding operating point.
Total elapsed time: 0.985 seconds.

Files loaded:
D:\Microelectronics-Project\netlists\mux.net
D:\Microelectronics-Project\netlists\MOSFET_models_0p5_0p18-4.inc
D:\Microelectronics-Project\netlists\inv.net
D:\Microelectronics-Project\netlists\nand3.net
D:\Microelectronics-Project\netlists\nand4.net

avg_power: AVG((I(V1)*1.8) )=-1.25569045468e-06 FROM 0 TO 3.2e-07
